data/open_dss/uhs19_1247/uhs19_1247--udt19872/Loads_scenario_65.dss
New Load.load_p1ulv2606 conn=wye bus1=p1ulv2606.1.2 kV=0.2080002494301389 Vminpu=0.8 Vmaxpu=1.2 model=1 kW=3.49003 kvar=0.7105048699136965 Phases=2

New Load.load_p1ulv2607 conn=wye bus1=p1ulv2607.1.2 kV=0.2080002494301389 Vminpu=0.8 Vmaxpu=1.2 model=1 kW=4.96005 kvar=1.6302895958924204 Phases=2

New Load.load_p1ulv2608 conn=wye bus1=p1ulv2608.1.2 kV=0.2080002494301389 Vminpu=0.8 Vmaxpu=1.2 model=1 kW=3.54004 kvar=0.7206859710917335 Phases=2

New Load.load_p1ulv2609 conn=wye bus1=p1ulv2609.1.2 kV=0.2080002494301389 Vminpu=0.8 Vmaxpu=1.2 model=1 kW=5.86006 kvar=1.1899359348349032 Phases=2

New Load.load_p1ulv2725 conn=wye bus1=p1ulv2725.1.2.3 kV=0.48 Vminpu=0.8 Vmaxpu=1.2 model=1 kW=28.660299999999996 kvar=5.819722131368753 Phases=3

New Load.load_p1ulv2726 conn=wye bus1=p1ulv2726.1.2 kV=0.2080002494301389 Vminpu=0.8 Vmaxpu=1.2 model=1 kW=17.78 kvar=0.5601303263507202 Phases=2

New Load.load_p1ulv2727 conn=wye bus1=p1ulv2727.1.2 kV=0.2080002494301389 Vminpu=0.8 Vmaxpu=1.2 model=1 kW=3.55004 kvar=0.7208663675971405 Phases=2

New Load.load_p1ulv2728 conn=wye bus1=p1ulv2728.1.2 kV=0.2080002494301389 Vminpu=0.8 Vmaxpu=1.2 model=1 kW=10.54 kvar=0.6204785592224786 Phases=2

New Load.load_p1ulv2729 conn=wye bus1=p1ulv2729.1.2 kV=0.2080002494301389 Vminpu=0.8 Vmaxpu=1.2 model=1 kW=12.3801 kvar=0.9909364168269728 Phases=2

New Load.load_p1ulv2730 conn=wye bus1=p1ulv2730.1.2 kV=0.2080002494301389 Vminpu=0.8 Vmaxpu=1.2 model=1 kW=11.58 kvar=0.8306198770333432 Phases=2

New Load.load_p1ulv2731 conn=wye bus1=p1ulv2731.1.2 kV=0.2080002494301389 Vminpu=0.8 Vmaxpu=1.2 model=1 kW=10.64 kvar=0.6392514123589496 Phases=2

New Load.load_p1ulv2732 conn=wye bus1=p1ulv2732.1.2 kV=0.2080002494301389 Vminpu=0.8 Vmaxpu=1.2 model=1 kW=3.13003 kvar=0.6306495704677809 Phases=2

New Load.load_p1ulv2733 conn=wye bus1=p1ulv2733.1.2 kV=0.2080002494301389 Vminpu=0.8 Vmaxpu=1.2 model=1 kW=12.3201 kvar=0.9787528971889325 Phases=2

New Load.load_p1ulv2734 conn=wye bus1=p1ulv2734.1.2 kV=0.2080002494301389 Vminpu=0.8 Vmaxpu=1.2 model=1 kW=4.11004 kvar=0.8410090147543001 Phases=2

New Load.load_p1ulv2735 conn=wye bus1=p1ulv2735.1.2 kV=0.2080002494301389 Vminpu=0.8 Vmaxpu=1.2 model=1 kW=4.44004 kvar=0.8992627282013091 Phases=2

New Load.load_p1ulv2736 conn=wye bus1=p1ulv2736.1.2 kV=0.2080002494301389 Vminpu=0.8 Vmaxpu=1.2 model=1 kW=11.55 kvar=0.8202741461167985 Phases=2

New Load.load_p1ulv2737 conn=wye bus1=p1ulv2737.1.2.3 kV=0.48 Vminpu=0.8 Vmaxpu=1.2 model=1 kW=225.722 kvar=45.834806995628725 Phases=3

New Load.load_p1ulv2738 conn=wye bus1=p1ulv2738.1.2 kV=0.2080002494301389 Vminpu=0.8 Vmaxpu=1.2 model=1 kW=11.3 kvar=0.7696404396523686 Phases=2

New Load.load_p1ulv2739 conn=wye bus1=p1ulv2739.1.2 kV=0.2080002494301389 Vminpu=0.8 Vmaxpu=1.2 model=1 kW=10.9 kvar=0.6904055379154336 Phases=2

New Load.load_p1ulv2740 conn=wye bus1=p1ulv2740.1.2 kV=0.2080002494301389 Vminpu=0.8 Vmaxpu=1.2 model=1 kW=3.33003 kvar=0.6796683639857601 Phases=2

New Load.load_p1ulv2741 conn=wye bus1=p1ulv2741.1.2.3 kV=0.48 Vminpu=0.8 Vmaxpu=1.2 model=1 kW=31.680300000000003 kvar=10.412811057297938 Phases=3

New Load.load_p1ulv2742 conn=wye bus1=p1ulv2742.1.2.3 kV=0.48 Vminpu=0.8 Vmaxpu=1.2 model=1 kW=106.371 kvar=34.96245695198085 Phases=3

New Load.load_p1ulv2743 conn=wye bus1=p1ulv2743.1.2 kV=0.2080002494301389 Vminpu=0.8 Vmaxpu=1.2 model=1 kW=7.54008 kvar=1.531078545873243 Phases=2

New Load.load_p1ulv2745 conn=wye bus1=p1ulv2745.1.2 kV=0.2080002494301389 Vminpu=0.8 Vmaxpu=1.2 model=1 kW=10.98 kvar=0.71028378024263 Phases=2

New Load.load_p1ulv2758 conn=wye bus1=p1ulv2758.1.2 kV=0.2080002494301389 Vminpu=0.8 Vmaxpu=1.2 model=1 kW=11.31 kvar=0.769665394243948 Phases=2

New Load.load_p1ulv10123 conn=wye bus1=p1ulv10123.1.2 kV=0.2080002494301389 Vminpu=0.8 Vmaxpu=1.2 model=1 kW=1.9900200000000001 kvar=0.39990665650064394 Phases=2

New Load.load_p1ulv10127 conn=wye bus1=p1ulv10127.1.2 kV=0.2080002494301389 Vminpu=0.8 Vmaxpu=1.2 model=1 kW=2.90003 kvar=0.5903918986071232 Phases=2

New Load.load_p1ulv10128 conn=wye bus1=p1ulv10128.1.2 kV=0.2080002494301389 Vminpu=0.8 Vmaxpu=1.2 model=1 kW=1.38001 kvar=0.28022298226153225 Phases=2

New Load.load_p1ulv11624 conn=wye bus1=p1ulv11624.1.2 kV=0.2080002494301389 Vminpu=0.8 Vmaxpu=1.2 model=1 kW=2.93003 kvar=0.5995517424405946 Phases=2

New Load.load_p1ulv11625 conn=wye bus1=p1ulv11624.1.2 kV=0.2080002494301389 Vminpu=0.8 Vmaxpu=1.2 model=1 kW=1.56002 kvar=0.32002595041741205 Phases=2

New Load.load_p1ulv11626 conn=wye bus1=p1ulv11626.1.2 kV=0.2080002494301389 Vminpu=0.8 Vmaxpu=1.2 model=1 kW=1.39001 kvar=0.28006415575758703 Phases=2

New Load.load_p1ulv11627 conn=wye bus1=p1ulv11626.1.2 kV=0.2080002494301389 Vminpu=0.8 Vmaxpu=1.2 model=1 kW=3.19003 kvar=0.6494304777239135 Phases=2

New Load.load_p1ulv11628 conn=wye bus1=p1ulv11628.1.2 kV=0.2080002494301389 Vminpu=0.8 Vmaxpu=1.2 model=1 kW=2.99003 kvar=0.6102734204701886 Phases=2

New Load.load_p1ulv11629 conn=wye bus1=p1ulv11629.1.2 kV=0.2080002494301389 Vminpu=0.8 Vmaxpu=1.2 model=1 kW=1.38001 kvar=0.28022298226153225 Phases=2

New Load.load_p1ulv11630 conn=wye bus1=p1ulv11630.1.2 kV=0.2080002494301389 Vminpu=0.8 Vmaxpu=1.2 model=1 kW=1.38001 kvar=0.28022298226153225 Phases=2

New Load.load_p1ulv11631 conn=wye bus1=p1ulv11630.1.2 kV=0.2080002494301389 Vminpu=0.8 Vmaxpu=1.2 model=1 kW=1.38001 kvar=0.28022298226153225 Phases=2

New Load.load_p1ulv11632 conn=wye bus1=p1ulv11632.1.2 kV=0.2080002494301389 Vminpu=0.8 Vmaxpu=1.2 model=1 kW=3.0100300000000004 kvar=0.6096359018765115 Phases=2

New Load.load_p1ulv11633 conn=wye bus1=p1ulv11633.1.2 kV=0.2080002494301389 Vminpu=0.8 Vmaxpu=1.2 model=1 kW=3.19003 kvar=0.6494304777239135 Phases=2

New Load.load_p1ulv11634 conn=wye bus1=p1ulv11634.1.2 kV=0.2080002494301389 Vminpu=0.8 Vmaxpu=1.2 model=1 kW=3.10003 kvar=0.6294879397252322 Phases=2

New Load.load_p1ulv11635 conn=wye bus1=p1ulv11635.1.2 kV=0.2080002494301389 Vminpu=0.8 Vmaxpu=1.2 model=1 kW=3.0100300000000004 kvar=0.6096359018765115 Phases=2

New Load.load_p1ulv11636 conn=wye bus1=p1ulv11636.1.2 kV=0.2080002494301389 Vminpu=0.8 Vmaxpu=1.2 model=1 kW=3.08003 kvar=0.6302452033833459 Phases=2

New Load.load_p1ulv11637 conn=wye bus1=p1ulv11637.1.2 kV=0.2080002494301389 Vminpu=0.8 Vmaxpu=1.2 model=1 kW=3.11003 kvar=0.6298893844622836 Phases=2

New Load.load_p1ulv11638 conn=wye bus1=p1ulv11638.1.2 kV=0.2080002494301389 Vminpu=0.8 Vmaxpu=1.2 model=1 kW=3.04003 kvar=0.6204785592224786 Phases=2

New Load.load_p1ulv11639 conn=wye bus1=p1ulv11639.1.2 kV=0.2080002494301389 Vminpu=0.8 Vmaxpu=1.2 model=1 kW=3.29003 kvar=0.6697886084538411 Phases=2

New Load.load_p1ulv11640 conn=wye bus1=p1ulv11639.1.2 kV=0.2080002494301389 Vminpu=0.8 Vmaxpu=1.2 model=1 kW=3.21003 kvar=0.6501428670480555 Phases=2

New Load.load_p1ulv11641 conn=wye bus1=p1ulv11641.1.2 kV=0.2080002494301389 Vminpu=0.8 Vmaxpu=1.2 model=1 kW=2.83003 kvar=0.5702045040817287 Phases=2

New Load.load_p1ulv11642 conn=wye bus1=p1ulv11642.1.2 kV=0.2080002494301389 Vminpu=0.8 Vmaxpu=1.2 model=1 kW=2.98003 kvar=0.6097828960881785 Phases=2

New Load.load_p1ulv11643 conn=wye bus1=p1ulv11643.1.2 kV=0.2080002494301389 Vminpu=0.8 Vmaxpu=1.2 model=1 kW=1.38001 kvar=0.28022298226153225 Phases=2

New Load.load_p1ulv11644 conn=wye bus1=p1ulv11644.1.2 kV=0.2080002494301389 Vminpu=0.8 Vmaxpu=1.2 model=1 kW=1.38001 kvar=0.28022298226153225 Phases=2

New Load.load_p1ulv11645 conn=wye bus1=p1ulv11645.1.2 kV=0.2080002494301389 Vminpu=0.8 Vmaxpu=1.2 model=1 kW=2.93003 kvar=0.5995517424405946 Phases=2

New Load.load_p1ulv11646 conn=wye bus1=p1ulv11646.1.2 kV=0.2080002494301389 Vminpu=0.8 Vmaxpu=1.2 model=1 kW=3.21003 kvar=0.6501428670480555 Phases=2

New Load.load_p1ulv11647 conn=wye bus1=p1ulv11647.1.2 kV=0.2080002494301389 Vminpu=0.8 Vmaxpu=1.2 model=1 kW=3.2800300000000004 kvar=0.6694632252334703 Phases=2

New Load.load_p1ulv11648 conn=wye bus1=p1ulv11648.1.2 kV=0.2080002494301389 Vminpu=0.8 Vmaxpu=1.2 model=1 kW=3.0300300000000004 kvar=0.6200140497357622 Phases=2

New Load.load_p1ulv11649 conn=wye bus1=p1ulv11649.1.2 kV=0.2080002494301389 Vminpu=0.8 Vmaxpu=1.2 model=1 kW=2.26002 kvar=0.4600978261225126 Phases=2

New Load.load_p1ulv11650 conn=wye bus1=p1ulv11650.1.2 kV=0.2080002494301389 Vminpu=0.8 Vmaxpu=1.2 model=1 kW=2.92003 kvar=0.5898746577868357 Phases=2

New Load.load_p1ulv11651 conn=wye bus1=p1ulv11651.1.2 kV=0.2080002494301389 Vminpu=0.8 Vmaxpu=1.2 model=1 kW=2.29002 kvar=0.46019348625622075 Phases=2

New Load.load_p1ulv11652 conn=wye bus1=p1ulv11652.1.2 kV=0.2080002494301389 Vminpu=0.8 Vmaxpu=1.2 model=1 kW=1.80002 kvar=0.3701924641947718 Phases=2

New Load.load_p1ulv11653 conn=wye bus1=p1ulv11653.1.2 kV=0.2080002494301389 Vminpu=0.8 Vmaxpu=1.2 model=1 kW=1.96002 kvar=0.40004552114526587 Phases=2

New Load.load_p1ulv11654 conn=wye bus1=p1ulv11654.1.2 kV=0.2080002494301389 Vminpu=0.8 Vmaxpu=1.2 model=1 kW=2.8200300000000005 kvar=0.5696736784206362 Phases=2

New Load.load_p1ulv11655 conn=wye bus1=p1ulv11655.1.2 kV=0.2080002494301389 Vminpu=0.8 Vmaxpu=1.2 model=1 kW=2.85003 kvar=0.5802128332421591 Phases=2

New Load.load_p1ulv11656 conn=wye bus1=p1ulv11656.1.2 kV=0.2080002494301389 Vminpu=0.8 Vmaxpu=1.2 model=1 kW=2.99003 kvar=0.6102734204701886 Phases=2

New Load.load_p1ulv11657 conn=wye bus1=p1ulv11657.1.2 kV=0.2080002494301389 Vminpu=0.8 Vmaxpu=1.2 model=1 kW=3.21003 kvar=0.6501428670480555 Phases=2

New Load.load_p1ulv11658 conn=wye bus1=p1ulv11658.1.2 kV=0.2080002494301389 Vminpu=0.8 Vmaxpu=1.2 model=1 kW=3.15003 kvar=0.6396408727569326 Phases=2

New Load.load_p1ulv11659 conn=wye bus1=p1ulv11658.1.2 kV=0.2080002494301389 Vminpu=0.8 Vmaxpu=1.2 model=1 kW=3.04003 kvar=0.6204785592224786 Phases=2

New Load.load_p1ulv11660 conn=wye bus1=p1ulv11660.1.2 kV=0.2080002494301389 Vminpu=0.8 Vmaxpu=1.2 model=1 kW=2.99003 kvar=0.6102734204701886 Phases=2

New Load.load_p1ulv11661 conn=wye bus1=p1ulv11661.1.2 kV=0.2080002494301389 Vminpu=0.8 Vmaxpu=1.2 model=1 kW=3.16003 kvar=0.6400161257551694 Phases=2

New Load.load_p1ulv11662 conn=wye bus1=p1ulv11662.1.2 kV=0.2080002494301389 Vminpu=0.8 Vmaxpu=1.2 model=1 kW=3.0100300000000004 kvar=0.6096359018765115 Phases=2

New Load.load_p1ulv11663 conn=wye bus1=p1ulv11662.1.2 kV=0.2080002494301389 Vminpu=0.8 Vmaxpu=1.2 model=1 kW=3.21003 kvar=0.6501428670480555 Phases=2

New Load.load_p1ulv11664 conn=wye bus1=p1ulv11664.1.2 kV=0.2080002494301389 Vminpu=0.8 Vmaxpu=1.2 model=1 kW=2.90003 kvar=0.5903918986071232 Phases=2

New Load.load_p1ulv11665 conn=wye bus1=p1ulv11665.1.2 kV=0.2080002494301389 Vminpu=0.8 Vmaxpu=1.2 model=1 kW=3.11003 kvar=0.6298893844622836 Phases=2

New Load.load_p1ulv11666 conn=wye bus1=p1ulv11666.1.2 kV=0.2080002494301389 Vminpu=0.8 Vmaxpu=1.2 model=1 kW=2.96003 kvar=0.5995091605836256 Phases=2

New Load.load_p1ulv11667 conn=wye bus1=p1ulv11667.1.2 kV=0.2080002494301389 Vminpu=0.8 Vmaxpu=1.2 model=1 kW=3.0100300000000004 kvar=0.6096359018765115 Phases=2

New Load.load_p1ulv11668 conn=wye bus1=p1ulv11668.1.2 kV=0.2080002494301389 Vminpu=0.8 Vmaxpu=1.2 model=1 kW=3.15003 kvar=0.6396408727569326 Phases=2

New Load.load_p1ulv11669 conn=wye bus1=p1ulv11668.1.2 kV=0.2080002494301389 Vminpu=0.8 Vmaxpu=1.2 model=1 kW=1.69002 kvar=0.33961982674506697 Phases=2

New Load.load_p1ulv11670 conn=wye bus1=p1ulv11670.1.2 kV=0.2080002494301389 Vminpu=0.8 Vmaxpu=1.2 model=1 kW=1.7300200000000001 kvar=0.350389299430372 Phases=2

New Load.load_p1ulv11671 conn=wye bus1=p1ulv11671.1.2 kV=0.2080002494301389 Vminpu=0.8 Vmaxpu=1.2 model=1 kW=3.15003 kvar=0.6396408727569326 Phases=2

New Load.load_p1ulv11672 conn=wye bus1=p1ulv11672.1.2 kV=0.2080002494301389 Vminpu=0.8 Vmaxpu=1.2 model=1 kW=7.68008 kvar=2.518865425678565 Phases=2

New Load.load_p1ulv11673 conn=wye bus1=p1ulv11673.1.2 kV=0.2080002494301389 Vminpu=0.8 Vmaxpu=1.2 model=1 kW=12.7701 kvar=4.201858692013695 Phases=2

New Load.load_p1ulv11674 conn=wye bus1=p1ulv11674.1.2 kV=0.2080002494301389 Vminpu=0.8 Vmaxpu=1.2 model=1 kW=3.19003 kvar=0.6494304777239135 Phases=2

New Load.load_p1ulv11675 conn=wye bus1=p1ulv11675.1.2 kV=0.2080002494301389 Vminpu=0.8 Vmaxpu=1.2 model=1 kW=3.22003 kvar=0.6504775958854341 Phases=2

New Load.load_p1ulv11676 conn=wye bus1=p1ulv11676.1.2 kV=0.2080002494301389 Vminpu=0.8 Vmaxpu=1.2 model=1 kW=3.04003 kvar=0.6204785592224786 Phases=2

New Load.load_p1ulv11677 conn=wye bus1=p1ulv11676.1.2 kV=0.2080002494301389 Vminpu=0.8 Vmaxpu=1.2 model=1 kW=3.0700300000000005 kvar=0.620176126836135 Phases=2

New Load.load_p1ulv11678 conn=wye bus1=p1ulv11678.1.2 kV=0.2080002494301389 Vminpu=0.8 Vmaxpu=1.2 model=1 kW=3.14003 kvar=0.6392514123589496 Phases=2

New Load.load_p1ulv11679 conn=wye bus1=p1ulv11679.1.2 kV=0.2080002494301389 Vminpu=0.8 Vmaxpu=1.2 model=1 kW=3.17003 kvar=0.6403771062023346 Phases=2

New Load.load_p1ulv11680 conn=wye bus1=p1ulv11680.1.2 kV=0.2080002494301389 Vminpu=0.8 Vmaxpu=1.2 model=1 kW=3.34003 kvar=0.679967673818805 Phases=2

New Load.load_p1ulv11681 conn=wye bus1=p1ulv11681.1.2 kV=0.2080002494301389 Vminpu=0.8 Vmaxpu=1.2 model=1 kW=3.10003 kvar=0.6294879397252322 Phases=2

New Load.load_p1ulv11682 conn=wye bus1=p1ulv11682.1.2 kV=0.2080002494301389 Vminpu=0.8 Vmaxpu=1.2 model=1 kW=1.67002 kvar=0.339984854815939 Phases=2

New Load.load_p1ulv11683 conn=wye bus1=p1ulv11683.1.2 kV=0.2080002494301389 Vminpu=0.8 Vmaxpu=1.2 model=1 kW=1.38001 kvar=0.28022298226153225 Phases=2

New Load.load_p1ulv11684 conn=wye bus1=p1ulv11683.1.2 kV=0.2080002494301389 Vminpu=0.8 Vmaxpu=1.2 model=1 kW=1.91002 kvar=0.3898403823929759 Phases=2

New Load.load_p1ulv11685 conn=wye bus1=p1ulv11685.1.2 kV=0.2080002494301389 Vminpu=0.8 Vmaxpu=1.2 model=1 kW=3.08003 kvar=0.6302452033833459 Phases=2

New Load.load_p1ulv11686 conn=wye bus1=p1ulv11686.1.2 kV=0.2080002494301389 Vminpu=0.8 Vmaxpu=1.2 model=1 kW=2.81003 kvar=0.570600928141371 Phases=2

New Load.load_p1ulv11687 conn=wye bus1=p1ulv11687.1.2 kV=0.2080002494301389 Vminpu=0.8 Vmaxpu=1.2 model=1 kW=1.51002 kvar=0.30976883991827064 Phases=2

New Load.load_p1ulv11688 conn=wye bus1=p1ulv11688.1.2 kV=0.2080002494301389 Vminpu=0.8 Vmaxpu=1.2 model=1 kW=1.50002 kvar=0.2998502484502169 Phases=2

New Load.load_p1ulv11689 conn=wye bus1=p1ulv11689.1.2 kV=0.2080002494301389 Vminpu=0.8 Vmaxpu=1.2 model=1 kW=3.02003 kvar=0.6100756371530351 Phases=2

New Load.load_p1ulv11690 conn=wye bus1=p1ulv11690.1.2 kV=0.2080002494301389 Vminpu=0.8 Vmaxpu=1.2 model=1 kW=2.8000300000000005 kvar=0.5700337678771953 Phases=2

New Load.load_p1ulv11691 conn=wye bus1=p1ulv11690.1.2 kV=0.2080002494301389 Vminpu=0.8 Vmaxpu=1.2 model=1 kW=1.86002 kvar=0.37963524364068607 Phases=2

New Load.load_p1ulv11692 conn=wye bus1=p1ulv11692.1.2 kV=0.2080002494301389 Vminpu=0.8 Vmaxpu=1.2 model=1 kW=1.7300200000000001 kvar=0.350389299430372 Phases=2

New Load.load_p1ulv11693 conn=wye bus1=p1ulv11692.1.2 kV=0.2080002494301389 Vminpu=0.8 Vmaxpu=1.2 model=1 kW=2.8200300000000005 kvar=0.5696736784206362 Phases=2

New Load.load_p1ulv11694 conn=wye bus1=p1ulv11694.1.2 kV=0.2080002494301389 Vminpu=0.8 Vmaxpu=1.2 model=1 kW=3.21003 kvar=0.6501428670480555 Phases=2

New Load.load_p1ulv11695 conn=wye bus1=p1ulv11695.1.2 kV=0.2080002494301389 Vminpu=0.8 Vmaxpu=1.2 model=1 kW=3.0700300000000005 kvar=0.620176126836135 Phases=2

New Load.load_p1ulv11696 conn=wye bus1=p1ulv11696.1.2 kV=0.2080002494301389 Vminpu=0.8 Vmaxpu=1.2 model=1 kW=3.29003 kvar=0.6697886084538411 Phases=2

New Load.load_p1ulv11697 conn=wye bus1=p1ulv11696.1.2 kV=0.2080002494301389 Vminpu=0.8 Vmaxpu=1.2 model=1 kW=3.10003 kvar=0.6294879397252322 Phases=2

New Load.load_p1ulv11698 conn=wye bus1=p1ulv11698.1.2 kV=0.2080002494301389 Vminpu=0.8 Vmaxpu=1.2 model=1 kW=3.15003 kvar=0.6396408727569326 Phases=2

New Load.load_p1ulv11699 conn=wye bus1=p1ulv11699.1.2 kV=0.2080002494301389 Vminpu=0.8 Vmaxpu=1.2 model=1 kW=3.25003 kvar=0.659946738820333 Phases=2

New Load.load_p1ulv11700 conn=wye bus1=p1ulv11700.1.2 kV=0.2080002494301389 Vminpu=0.8 Vmaxpu=1.2 model=1 kW=3.37003 kvar=0.6807790649347335 Phases=2

New Load.load_p1ulv11701 conn=wye bus1=p1ulv11701.1.2 kV=0.2080002494301389 Vminpu=0.8 Vmaxpu=1.2 model=1 kW=3.0300300000000004 kvar=0.6200140497357622 Phases=2

New Load.load_p1ulv11702 conn=wye bus1=p1ulv11702.1.2 kV=0.2080002494301389 Vminpu=0.8 Vmaxpu=1.2 model=1 kW=3.23003 kvar=0.6507979259297981 Phases=2

New Load.load_p1ulv11703 conn=wye bus1=p1ulv11703.1.2 kV=0.2080002494301389 Vminpu=0.8 Vmaxpu=1.2 model=1 kW=3.13003 kvar=0.6404763570309296 Phases=2

New Load.load_p1ulv11704 conn=wye bus1=p1ulv11704.1.2 kV=0.2080002494301389 Vminpu=0.8 Vmaxpu=1.2 model=1 kW=3.06003 kvar=0.6197626431693976 Phases=2

New Load.load_p1ulv11705 conn=wye bus1=p1ulv11704.1.2 kV=0.2080002494301389 Vminpu=0.8 Vmaxpu=1.2 model=1 kW=3.0700300000000005 kvar=0.620176126836135 Phases=2

New Load.load_p1ulv11706 conn=wye bus1=p1ulv11706.1.2 kV=0.2080002494301389 Vminpu=0.8 Vmaxpu=1.2 model=1 kW=3.16003 kvar=0.6400161257551694 Phases=2

New Load.load_p1ulv11806 conn=wye bus1=p1ulv11806.1.2 kV=0.2080002494301389 Vminpu=0.8 Vmaxpu=1.2 model=1 kW=4.30004 kvar=0.8709078525812284 Phases=2

New Load.load_p1ulv11807 conn=wye bus1=p1ulv11807.1.2 kV=0.2080002494301389 Vminpu=0.8 Vmaxpu=1.2 model=1 kW=3.31003 kvar=0.6703963496338274 Phases=2

New Load.load_p1ulv11808 conn=wye bus1=p1ulv11808.1.2 kV=0.2080002494301389 Vminpu=0.8 Vmaxpu=1.2 model=1 kW=3.7500400000000003 kvar=0.7595136983594827 Phases=2

New Load.load_p1ulv14622 conn=wye bus1=p1ulv14622.1.2 kV=0.2080002494301389 Vminpu=0.8 Vmaxpu=1.2 model=1 kW=9.9201 kvar=2.0195469265395602 Phases=2

New Load.load_p1ulv39610 conn=wye bus1=p1ulv39610.1.2 kV=0.2080002494301389 Vminpu=0.8 Vmaxpu=1.2 model=1 kW=3.17003 kvar=0.6403771062023346 Phases=2

New Load.load_p1ulv39615 conn=wye bus1=p1ulv39615.1.2 kV=0.2080002494301389 Vminpu=0.8 Vmaxpu=1.2 model=1 kW=16.6302 kvar=5.460178846031908 Phases=2

New Load.load_p1ulv39648 conn=wye bus1=p1ulv39648.1.2 kV=0.2080002494301389 Vminpu=0.8 Vmaxpu=1.2 model=1 kW=1.38001 kvar=0.28022298226153225 Phases=2

New Load.load_p1ulv39787 conn=wye bus1=p1ulv39787.1.2 kV=0.2080002494301389 Vminpu=0.8 Vmaxpu=1.2 model=1 kW=3.76004 kvar=0.7595649045608481 Phases=2

New Load.load_p1ulv39833 conn=wye bus1=p1ulv39833.1.2 kV=0.2080002494301389 Vminpu=0.8 Vmaxpu=1.2 model=1 kW=12.1501 kvar=3.989231578524149 Phases=2

New Load.load_p1ulv39854 conn=wye bus1=p1ulv39854.1.2 kV=0.2080002494301389 Vminpu=0.8 Vmaxpu=1.2 model=1 kW=2.57003 kvar=0.520520578499115 Phases=2

New Load.load_p1ulv39890 conn=wye bus1=p1ulv39890.1.2.3 kV=0.48 Vminpu=0.8 Vmaxpu=1.2 model=1 kW=23.1202 kvar=7.599242248556351 Phases=3

New Load.load_p1ulv39892 conn=wye bus1=p1ulv39892.1.2 kV=0.2080002494301389 Vminpu=0.8 Vmaxpu=1.2 model=1 kW=3.67004 kvar=0.749065348529082 Phases=2

New Load.load_p1ulv39911 conn=wye bus1=p1ulv39911.1.2 kV=0.2080002494301389 Vminpu=0.8 Vmaxpu=1.2 model=1 kW=3.24003 kvar=0.6596095430888772 Phases=2

New Load.load_p1ulv39934 conn=wye bus1=p1ulv39934.1.2 kV=0.2080002494301389 Vminpu=0.8 Vmaxpu=1.2 model=1 kW=3.24003 kvar=0.6596095430888772 Phases=2

New Load.load_p1ulv39956 conn=wye bus1=p1ulv39956.1.2 kV=0.2080002494301389 Vminpu=0.8 Vmaxpu=1.2 model=1 kW=4.14004 kvar=1.3592956687066866 Phases=2

New Load.load_p1ulv39974 conn=wye bus1=p1ulv39974.1.2 kV=0.2080002494301389 Vminpu=0.8 Vmaxpu=1.2 model=1 kW=3.92004 kvar=0.8000910422905317 Phases=2

New Load.load_p1ulv39995 conn=wye bus1=p1ulv39995.1.2 kV=0.2080002494301389 Vminpu=0.8 Vmaxpu=1.2 model=1 kW=2.73003 kvar=0.5600443875194212 Phases=2

New Load.load_p1ulv40016 conn=wye bus1=p1ulv40016.1.2 kV=0.2080002494301389 Vminpu=0.8 Vmaxpu=1.2 model=1 kW=3.19003 kvar=0.6494304777239135 Phases=2

New Load.load_p1ulv40031 conn=wye bus1=p1ulv40031.1.2 kV=0.2080002494301389 Vminpu=0.8 Vmaxpu=1.2 model=1 kW=4.33004 kvar=0.879252122891664 Phases=2

New Load.load_p1ulv40059 conn=wye bus1=p1ulv40059.1.2.3 kV=0.48 Vminpu=0.8 Vmaxpu=1.2 model=1 kW=25.8803 kvar=8.497255991446862 Phases=3

New Load.load_p1ulv40080 conn=wye bus1=p1ulv40080.1.2 kV=0.2080002494301389 Vminpu=0.8 Vmaxpu=1.2 model=1 kW=3.34003 kvar=0.679967673818805 Phases=2

New Load.load_p1ulv40090 conn=wye bus1=p1ulv40090.1.2.3 kV=0.48 Vminpu=0.8 Vmaxpu=1.2 model=1 kW=72.99070000000002 kvar=23.99088291587885 Phases=3

New Load.load_p1ulv40109 conn=wye bus1=p1ulv40109.1.2 kV=0.2080002494301389 Vminpu=0.8 Vmaxpu=1.2 model=1 kW=3.77004 kvar=0.7694756260336619 Phases=2

New Load.load_p1ulv40113 conn=wye bus1=p1ulv40113.1.2 kV=0.2080002494301389 Vminpu=0.8 Vmaxpu=1.2 model=1 kW=3.74004 kvar=0.7594475131176014 Phases=2

New Load.load_p1ulv40146 conn=wye bus1=p1ulv40146.1.2 kV=0.2080002494301389 Vminpu=0.8 Vmaxpu=1.2 model=1 kW=3.78004 kvar=0.7695454848435601 Phases=2

New Load.load_p1ulv40171 conn=wye bus1=p1ulv40171.1.2.3 kV=0.48 Vminpu=0.8 Vmaxpu=1.2 model=1 kW=174.632 kvar=35.46054002383744 Phases=3

New Load.load_p1ulv40214 conn=wye bus1=p1ulv40214.1.2 kV=0.2080002494301389 Vminpu=0.8 Vmaxpu=1.2 model=1 kW=6.04006 kvar=1.2296433109660727 Phases=2

New Load.load_p1ulv40231 conn=wye bus1=p1ulv40231.1.2.3 kV=0.48 Vminpu=0.8 Vmaxpu=1.2 model=1 kW=67.41070000000002 kvar=22.156825608980796 Phases=3

New Load.load_p1ulv40272 conn=wye bus1=p1ulv40272.1.2 kV=0.2080002494301389 Vminpu=0.8 Vmaxpu=1.2 model=1 kW=8.230080000000001 kvar=2.6992510445944107 Phases=2

New Load.load_p1ulv40318 conn=wye bus1=p1ulv40318.1.2.3 kV=0.48 Vminpu=0.8 Vmaxpu=1.2 model=1 kW=29.6903 kvar=9.758729687992 Phases=3

New Load.load_p1ulv40320 conn=wye bus1=p1ulv40320.1.2.3 kV=0.48 Vminpu=0.8 Vmaxpu=1.2 model=1 kW=20.320199999999996 kvar=6.678926754055535 Phases=3

New Load.load_p1ulv40341 conn=wye bus1=p1ulv40341.1.2 kV=0.2080002494301389 Vminpu=0.8 Vmaxpu=1.2 model=1 kW=3.64004 kvar=0.739141647054201 Phases=2

New Load.load_p1ulv40363 conn=wye bus1=p1ulv40363.1.2 kV=0.2080002494301389 Vminpu=0.8 Vmaxpu=1.2 model=1 kW=1.49001 kvar=0.3002125112196043 Phases=2

New Load.load_p1ulv40388 conn=wye bus1=p1ulv40388.1.2 kV=0.2080002494301389 Vminpu=0.8 Vmaxpu=1.2 model=1 kW=4.14004 kvar=1.3592956687066866 Phases=2

New Load.load_p1ulv40407 conn=wye bus1=p1ulv40407.1.2 kV=0.2080002494301389 Vminpu=0.8 Vmaxpu=1.2 model=1 kW=3.48003 kvar=0.71028378024263 Phases=2

New Load.load_p1ulv40412 conn=wye bus1=p1ulv40412.1.2 kV=0.2080002494301389 Vminpu=0.8 Vmaxpu=1.2 model=1 kW=3.0700300000000005 kvar=0.620176126836135 Phases=2

New Load.load_p1ulv40449 conn=wye bus1=p1ulv40449.1.2 kV=0.2080002494301389 Vminpu=0.8 Vmaxpu=1.2 model=1 kW=3.65004 kvar=0.7392602157737106 Phases=2

New Load.load_p1ulv40469 conn=wye bus1=p1ulv40469.1.2 kV=0.2080002494301389 Vminpu=0.8 Vmaxpu=1.2 model=1 kW=4.14004 kvar=1.3592956687066866 Phases=2

New Load.load_p1ulv41339 conn=wye bus1=p1ulv41339.1.2 kV=0.2080002494301389 Vminpu=0.8 Vmaxpu=1.2 model=1 kW=3.06003 kvar=0.6197626431693976 Phases=2

New Load.load_p1ulv41344 conn=wye bus1=p1ulv41344.1.2.3 kV=0.48 Vminpu=0.8 Vmaxpu=1.2 model=1 kW=27.660300000000003 kvar=9.091500954478908 Phases=3

New Load.load_p1ulv41401 conn=wye bus1=p1ulv41401.1.2.3 kV=0.48 Vminpu=0.8 Vmaxpu=1.2 model=1 kW=109.741 kvar=36.07012238643363 Phases=3

New Load.load_p1ulv41443 conn=wye bus1=p1ulv41443.1.2 kV=0.2080002494301389 Vminpu=0.8 Vmaxpu=1.2 model=1 kW=13.920100000000001 kvar=4.570374111835622 Phases=2

New Load.load_p1ulv41445 conn=wye bus1=p1ulv41445.1.2 kV=0.2080002494301389 Vminpu=0.8 Vmaxpu=1.2 model=1 kW=2.74003 kvar=0.5606733585797765 Phases=2

New Load.load_p1ulv41461 conn=wye bus1=p1ulv41461.1.2 kV=0.2080002494301389 Vminpu=0.8 Vmaxpu=1.2 model=1 kW=3.0100300000000004 kvar=0.6096359018765115 Phases=2

New Load.load_p1ulv41503 conn=wye bus1=p1ulv41503.1.2 kV=0.2080002494301389 Vminpu=0.8 Vmaxpu=1.2 model=1 kW=8.64009 kvar=1.749919123545024 Phases=2

New Load.load_p1ulv41524 conn=wye bus1=p1ulv41524.1.2 kV=0.2080002494301389 Vminpu=0.8 Vmaxpu=1.2 model=1 kW=4.920050000000001 kvar=0.9990587632523329 Phases=2

New Load.load_p1ulv41554 conn=wye bus1=p1ulv41554.1.2 kV=0.2080002494301389 Vminpu=0.8 Vmaxpu=1.2 model=1 kW=7.04007 kvar=2.3189517035255736 Phases=2

New Load.load_p1ulv41556 conn=wye bus1=p1ulv41556.1.2 kV=0.2080002494301389 Vminpu=0.8 Vmaxpu=1.2 model=1 kW=8.30008 kvar=2.731048565979048 Phases=2

New Load.load_p1ulv41579 conn=wye bus1=p1ulv41579.1.2 kV=0.2080002494301389 Vminpu=0.8 Vmaxpu=1.2 model=1 kW=1.38001 kvar=0.28022298226153225 Phases=2

New Load.load_p1ulv41623 conn=wye bus1=p1ulv41623.1.2 kV=0.2080002494301389 Vminpu=0.8 Vmaxpu=1.2 model=1 kW=11.7501 kvar=2.392100718897238 Phases=2

New Load.load_p1ulv41639 conn=wye bus1=p1ulv41639.1.2 kV=0.2080002494301389 Vminpu=0.8 Vmaxpu=1.2 model=1 kW=3.72004 kvar=0.7495268825292292 Phases=2

New Load.load_p1ulv41685 conn=wye bus1=p1ulv41685.1.2 kV=0.2080002494301389 Vminpu=0.8 Vmaxpu=1.2 model=1 kW=3.17003 kvar=0.6403771062023346 Phases=2

New Load.load_p1ulv41769 conn=wye bus1=p1ulv41769.1.2 kV=0.2080002494301389 Vminpu=0.8 Vmaxpu=1.2 model=1 kW=3.2600300000000004 kvar=0.6602696083409414 Phases=2

New Load.load_p1ulv41807 conn=wye bus1=p1ulv41807.1.2 kV=0.2080002494301389 Vminpu=0.8 Vmaxpu=1.2 model=1 kW=3.23003 kvar=0.6592580864811803 Phases=2

New Load.load_p1ulv41815 conn=wye bus1=p1ulv41815.1.2 kV=0.2080002494301389 Vminpu=0.8 Vmaxpu=1.2 model=1 kW=2.85003 kvar=0.5802128332421591 Phases=2

New Load.load_p1ulv41836 conn=wye bus1=p1ulv41836.1.2 kV=0.2080002494301389 Vminpu=0.8 Vmaxpu=1.2 model=1 kW=3.37003 kvar=0.6895858945393315 Phases=2

New Load.load_p1ulv41879 conn=wye bus1=p1ulv41879.1.2 kV=0.2080002494301389 Vminpu=0.8 Vmaxpu=1.2 model=1 kW=11.7001 kvar=3.849787149860177 Phases=2

New Load.load_p1ulv41904 conn=wye bus1=p1ulv41904.1.2 kV=0.2080002494301389 Vminpu=0.8 Vmaxpu=1.2 model=1 kW=4.12004 kvar=0.8409115972996914 Phases=2

New Load.load_p1ulv41958 conn=wye bus1=p1ulv41958.1.2 kV=0.2080002494301389 Vminpu=0.8 Vmaxpu=1.2 model=1 kW=3.24003 kvar=0.6596095430888772 Phases=2

New Load.load_p1ulv42019 conn=wye bus1=p1ulv42019.1.2 kV=0.2080002494301389 Vminpu=0.8 Vmaxpu=1.2 model=1 kW=3.68004 kvar=0.7491873541136322 Phases=2

New Load.load_p1ulv42026 conn=wye bus1=p1ulv42026.1.2.3 kV=0.48 Vminpu=0.8 Vmaxpu=1.2 model=1 kW=104.321 kvar=21.183282535999957 Phases=3

New Load.load_p1ulv42078 conn=wye bus1=p1ulv42078.1.2 kV=0.2080002494301389 Vminpu=0.8 Vmaxpu=1.2 model=1 kW=3.76004 kvar=0.7595649045608481 Phases=2

New Load.load_p1ulv42144 conn=wye bus1=p1ulv42144.1.2 kV=0.2080002494301389 Vminpu=0.8 Vmaxpu=1.2 model=1 kW=3.76004 kvar=0.7595649045608481 Phases=2

New Load.load_p1ulv42977 conn=wye bus1=p1ulv42977.1.2 kV=0.2080002494301389 Vminpu=0.8 Vmaxpu=1.2 model=1 kW=3.86004 kvar=0.7797658839270477 Phases=2

New Load.load_p1ulv43033 conn=wye bus1=p1ulv43033.1.2 kV=0.2080002494301389 Vminpu=0.8 Vmaxpu=1.2 model=1 kW=3.9600400000000002 kvar=0.7999668632932473 Phases=2

New Load.load_p1ulv43041 conn=wye bus1=p1ulv43041.1.2.3 kV=0.48 Vminpu=0.8 Vmaxpu=1.2 model=1 kW=65.35070000000002 kvar=13.270025613494626 Phases=3

New Load.load_p1ulv43061 conn=wye bus1=p1ulv43061.1.2 kV=0.2080002494301389 Vminpu=0.8 Vmaxpu=1.2 model=1 kW=3.7100400000000002 kvar=0.7494644148777485 Phases=2

New Load.load_p1ulv43106 conn=wye bus1=p1ulv43106.1.2 kV=0.2080002494301389 Vminpu=0.8 Vmaxpu=1.2 model=1 kW=8.17008 kvar=1.6590055020726662 Phases=2

New Load.load_p1ulv43125 conn=wye bus1=p1ulv43125.1.2 kV=0.2080002494301389 Vminpu=0.8 Vmaxpu=1.2 model=1 kW=4.41004 kvar=0.900101402062973 Phases=2

New Load.load_p1ulv43173 conn=wye bus1=p1ulv43173.1.2 kV=0.2080002494301389 Vminpu=0.8 Vmaxpu=1.2 model=1 kW=16.6302 kvar=5.471981458244348 Phases=2

New Load.load_p1ulv43180 conn=wye bus1=p1ulv43180.1.2 kV=0.2080002494301389 Vminpu=0.8 Vmaxpu=1.2 model=1 kW=4.70005 kvar=0.9494561307010603 Phases=2

New Load.load_p1ulv43222 conn=wye bus1=p1ulv43222.1.2 kV=0.2080002494301389 Vminpu=0.8 Vmaxpu=1.2 model=1 kW=13.6301 kvar=4.479997221998422 Phases=2

New Load.load_p1ulv43244 conn=wye bus1=p1ulv43244.1.2 kV=0.2080002494301389 Vminpu=0.8 Vmaxpu=1.2 model=1 kW=3.9800400000000002 kvar=0.8102617463034154 Phases=2

New Load.load_p1ulv43285 conn=wye bus1=p1ulv43285.1.2 kV=0.2080002494301389 Vminpu=0.8 Vmaxpu=1.2 model=1 kW=4.99005 kvar=1.0106589077713133 Phases=2

New Load.load_p1ulv43346 conn=wye bus1=p1ulv43346.1.2 kV=0.2080002494301389 Vminpu=0.8 Vmaxpu=1.2 model=1 kW=3.9800400000000002 kvar=0.8102617463034154 Phases=2

New Load.load_p1ulv43366 conn=wye bus1=p1ulv43366.1.2 kV=0.2080002494301389 Vminpu=0.8 Vmaxpu=1.2 model=1 kW=3.55004 kvar=0.7208663675971405 Phases=2

New Load.load_p1ulv43475 conn=wye bus1=p1ulv43475.1.2.3 kV=0.48 Vminpu=0.8 Vmaxpu=1.2 model=1 kW=31.060299999999998 kvar=10.209026912087042 Phases=3

New Load.load_p1ulv43495 conn=wye bus1=p1ulv43495.1.2 kV=0.2080002494301389 Vminpu=0.8 Vmaxpu=1.2 model=1 kW=4.40004 kvar=0.8911613351670004 Phases=2

New Load.load_p1ulv43539 conn=wye bus1=p1ulv43539.1.2 kV=0.2080002494301389 Vminpu=0.8 Vmaxpu=1.2 model=1 kW=4.14004 kvar=1.3592956687066866 Phases=2

New Load.load_p1ulv43541 conn=wye bus1=p1ulv43541.1.2 kV=0.2080002494301389 Vminpu=0.8 Vmaxpu=1.2 model=1 kW=10.5401 kvar=3.4606217035911127 Phases=2

New Load.load_p1ulv43561 conn=wye bus1=p1ulv43561.1.2 kV=0.2080002494301389 Vminpu=0.8 Vmaxpu=1.2 model=1 kW=3.60004 kvar=0.7291334744808246 Phases=2

New Load.load_p1ulv43585 conn=wye bus1=p1ulv43585.1.2 kV=0.2080002494301389 Vminpu=0.8 Vmaxpu=1.2 model=1 kW=3.51004 kvar=0.7109053401536299 Phases=2

New Load.load_p1ulv43599 conn=wye bus1=p1ulv43599.1.2.3 kV=0.48 Vminpu=0.8 Vmaxpu=1.2 model=1 kW=28.710300000000004 kvar=9.436619264916715 Phases=3

New Load.load_p1ulv43601 conn=wye bus1=p1ulv43601.1.2 kV=0.2080002494301389 Vminpu=0.8 Vmaxpu=1.2 model=1 kW=8.620090000000001 kvar=2.8302265197587038 Phases=2

New Load.load_p1ulv43623 conn=wye bus1=p1ulv43623.1.2 kV=0.2080002494301389 Vminpu=0.8 Vmaxpu=1.2 model=1 kW=3.33003 kvar=0.6796683639857601 Phases=2

New Load.load_p1ulv43670 conn=wye bus1=p1ulv43670.1.2.3 kV=0.48 Vminpu=0.8 Vmaxpu=1.2 model=1 kW=21.4602 kvar=4.357679468937858 Phases=3

New Load.load_p1ulv43686 conn=wye bus1=p1ulv43686.1.2 kV=0.2080002494301389 Vminpu=0.8 Vmaxpu=1.2 model=1 kW=4.09004 kvar=0.8305180443395029 Phases=2

New Load.load_p1ulv43692 conn=wye bus1=p1ulv43692.1.2 kV=0.2080002494301389 Vminpu=0.8 Vmaxpu=1.2 model=1 kW=4.64005 kvar=0.9397717187211114 Phases=2

New Load.load_p1ulv43726 conn=wye bus1=p1ulv43726.1.2 kV=0.2080002494301389 Vminpu=0.8 Vmaxpu=1.2 model=1 kW=4.33004 kvar=0.879252122891664 Phases=2

New Load.load_p1ulv43734 conn=wye bus1=p1ulv43734.1.2 kV=0.2080002494301389 Vminpu=0.8 Vmaxpu=1.2 model=1 kW=3.55004 kvar=0.7208663675971405 Phases=2

New Load.load_p1ulv43754 conn=wye bus1=p1ulv43754.1.2.3 kV=0.48 Vminpu=0.8 Vmaxpu=1.2 model=1 kW=59.98060000000001 kvar=12.179580300023959 Phases=3

New Load.load_p1ulv44639 conn=wye bus1=p1ulv44639.1.2.3 kV=0.48 Vminpu=0.8 Vmaxpu=1.2 model=1 kW=28.300299999999996 kvar=5.746621013540511 Phases=3

New Load.load_p1ulv44685 conn=wye bus1=p1ulv44685.1.2 kV=0.2080002494301389 Vminpu=0.8 Vmaxpu=1.2 model=1 kW=14.4801 kvar=4.759378711400457 Phases=2

New Load.load_p1ulv44687 conn=wye bus1=p1ulv44687.1.2 kV=0.2080002494301389 Vminpu=0.8 Vmaxpu=1.2 model=1 kW=3.59004 kvar=0.7308650364566972 Phases=2

New Load.load_p1ulv44744 conn=wye bus1=p1ulv44744.1.2 kV=0.2080002494301389 Vminpu=0.8 Vmaxpu=1.2 model=1 kW=15.060200000000002 kvar=3.058104040880232 Phases=2

New Load.load_p1ulv44795 conn=wye bus1=p1ulv44795.1.2 kV=0.2080002494301389 Vminpu=0.8 Vmaxpu=1.2 model=1 kW=11.340100000000001 kvar=3.731333173060862 Phases=2

New Load.load_p1ulv44797 conn=wye bus1=p1ulv44797.1.2 kV=0.2080002494301389 Vminpu=0.8 Vmaxpu=1.2 model=1 kW=5.23005 kvar=1.059267265977166 Phases=2

New Load.load_p1ulv44819 conn=wye bus1=p1ulv44819.1.2 kV=0.2080002494301389 Vminpu=0.8 Vmaxpu=1.2 model=1 kW=4.86005 kvar=0.9894153325398525 Phases=2

New Load.load_p1ulv44825 conn=wye bus1=p1ulv44825.1.2 kV=0.2080002494301389 Vminpu=0.8 Vmaxpu=1.2 model=1 kW=7.35007 kvar=2.4210636183350753 Phases=2

New Load.load_p1ulv44863 conn=wye bus1=p1ulv44863.1.2 kV=0.2080002494301389 Vminpu=0.8 Vmaxpu=1.2 model=1 kW=5.92006 kvar=1.9500279431843162 Phases=2

New Load.load_p1ulv44883 conn=wye bus1=p1ulv44883.1.2 kV=0.2080002494301389 Vminpu=0.8 Vmaxpu=1.2 model=1 kW=3.89004 kvar=0.789906312212702 Phases=2

New Load.load_p1ulv44909 conn=wye bus1=p1ulv44909.1.2.3 kV=0.48 Vminpu=0.8 Vmaxpu=1.2 model=1 kW=34.4403 kvar=11.319979187591601 Phases=3

New Load.load_p1ulv44922 conn=wye bus1=p1ulv44922.1.2 kV=0.2080002494301389 Vminpu=0.8 Vmaxpu=1.2 model=1 kW=3.97004 kvar=0.8102961810428216 Phases=2

New Load.load_p1ulv44929 conn=wye bus1=p1ulv44929.1.2 kV=0.2080002494301389 Vminpu=0.8 Vmaxpu=1.2 model=1 kW=3.42003 kvar=0.6998170481869153 Phases=2

New Load.load_p1ulv44949 conn=wye bus1=p1ulv44949.1.2.3 kV=0.48 Vminpu=0.8 Vmaxpu=1.2 model=1 kW=107.991 kvar=35.49492520237062 Phases=3

New Load.load_p1ulv44991 conn=wye bus1=p1ulv44991.1.2.3 kV=0.48 Vminpu=0.8 Vmaxpu=1.2 model=1 kW=25.870299999999997 kvar=8.503156406208744 Phases=3

New Load.load_p1ulv44992 conn=wye bus1=p1ulv44992.1.2 kV=0.2080002494301389 Vminpu=0.8 Vmaxpu=1.2 model=1 kW=3.12003 kvar=0.6302766165192346 Phases=2

New Load.load_p1ulv45008 conn=wye bus1=p1ulv45008.1.2 kV=0.2080002494301389 Vminpu=0.8 Vmaxpu=1.2 model=1 kW=3.47003 kvar=0.7100482018344989 Phases=2

New Load.load_p1ulv45053 conn=wye bus1=p1ulv45053.1.2 kV=0.2080002494301389 Vminpu=0.8 Vmaxpu=1.2 model=1 kW=3.2600300000000004 kvar=0.6602696083409414 Phases=2

New Load.load_p1ulv45074 conn=wye bus1=p1ulv45074.1.2 kV=0.2080002494301389 Vminpu=0.8 Vmaxpu=1.2 model=1 kW=3.62004 kvar=0.7293785270672118 Phases=2

New Load.load_p1ulv45122 conn=wye bus1=p1ulv45122.1.2.3 kV=0.48 Vminpu=0.8 Vmaxpu=1.2 model=1 kW=34.3203 kvar=11.280537094970137 Phases=3

New Load.load_p1ulv45144 conn=wye bus1=p1ulv45144.1.2 kV=0.2080002494301389 Vminpu=0.8 Vmaxpu=1.2 model=1 kW=4.14004 kvar=0.8406709773712032 Phases=2

New Load.load_p1ulv45168 conn=wye bus1=p1ulv45168.1.2 kV=0.2080002494301389 Vminpu=0.8 Vmaxpu=1.2 model=1 kW=3.24003 kvar=0.6596095430888772 Phases=2

New Load.load_p1ulv45188 conn=wye bus1=p1ulv45188.1.2.3 kV=0.48 Vminpu=0.8 Vmaxpu=1.2 model=1 kW=22.0502 kvar=4.477484078711921 Phases=3

New Load.load_p1ulv45205 conn=wye bus1=p1ulv45205.1.2 kV=0.2080002494301389 Vminpu=0.8 Vmaxpu=1.2 model=1 kW=3.27003 kvar=0.660578085568534 Phases=2

New Load.load_p1ulv45210 conn=wye bus1=p1ulv45210.1.2 kV=0.2080002494301389 Vminpu=0.8 Vmaxpu=1.2 model=1 kW=18.7502 kvar=6.16289270892472 Phases=2

New Load.load_p1ulv45253 conn=wye bus1=p1ulv45253.1.2.3 kV=0.48 Vminpu=0.8 Vmaxpu=1.2 model=1 kW=23.1802 kvar=7.6189632948670845 Phases=3

New Load.load_p1ulv45272 conn=wye bus1=p1ulv45272.1.2 kV=0.2080002494301389 Vminpu=0.8 Vmaxpu=1.2 model=1 kW=4.03004 kvar=0.8204408116683792 Phases=2

New Load.load_p1ulv45331 conn=wye bus1=p1ulv45331.1.2 kV=0.2080002494301389 Vminpu=0.8 Vmaxpu=1.2 model=1 kW=3.0500300000000005 kvar=0.6193350066935321 Phases=2

New Load.load_p1ulv45353 conn=wye bus1=p1ulv45353.1.2 kV=0.2080002494301389 Vminpu=0.8 Vmaxpu=1.2 model=1 kW=9.9201 kvar=3.260579191784841 Phases=2

New Load.load_p1ulv45392 conn=wye bus1=p1ulv45392.1.2 kV=0.2080002494301389 Vminpu=0.8 Vmaxpu=1.2 model=1 kW=3.35003 kvar=0.6802526048837334 Phases=2

New Load.load_p1ulv46343 conn=wye bus1=p1ulv46343.1.2.3 kV=0.48 Vminpu=0.8 Vmaxpu=1.2 model=1 kW=66.1307 kvar=13.428411368789147 Phases=3

New Load.load_p1ulv46366 conn=wye bus1=p1ulv46366.1.2 kV=0.2080002494301389 Vminpu=0.8 Vmaxpu=1.2 model=1 kW=3.77004 kvar=0.7694756260336619 Phases=2

New Load.load_p1ulv46373 conn=wye bus1=p1ulv46373.1.2 kV=0.2080002494301389 Vminpu=0.8 Vmaxpu=1.2 model=1 kW=17.1502 kvar=5.643081646954471 Phases=2

New Load.load_p1ulv46410 conn=wye bus1=p1ulv46410.1.2.3 kV=0.48 Vminpu=0.8 Vmaxpu=1.2 model=1 kW=21.010199999999998 kvar=4.2663030716525565 Phases=3

New Load.load_p1ulv46429 conn=wye bus1=p1ulv46429.1.2 kV=0.2080002494301389 Vminpu=0.8 Vmaxpu=1.2 model=1 kW=3.99004 kvar=0.8102121782761024 Phases=2

New Load.load_p1ulv46435 conn=wye bus1=p1ulv46435.1.2.3 kV=0.48 Vminpu=0.8 Vmaxpu=1.2 model=1 kW=126.871 kvar=41.70048110814754 Phases=3

New Load.load_p1ulv46460 conn=wye bus1=p1ulv46460.1.2.3 kV=0.48 Vminpu=0.8 Vmaxpu=1.2 model=1 kW=46.72050000000001 kvar=9.487002154150998 Phases=3

New Load.load_p1ulv46480 conn=wye bus1=p1ulv46480.1.2 kV=0.2080002494301389 Vminpu=0.8 Vmaxpu=1.2 model=1 kW=3.95004 kvar=0.8000206635310265 Phases=2

New Load.load_p1ulv46525 conn=wye bus1=p1ulv46525.1.2 kV=0.2080002494301389 Vminpu=0.8 Vmaxpu=1.2 model=1 kW=3.54004 kvar=0.7206859710917335 Phases=2

New Load.load_p1ulv46542 conn=wye bus1=p1ulv46542.1.2 kV=0.2080002494301389 Vminpu=0.8 Vmaxpu=1.2 model=1 kW=3.39003 kvar=0.6901467391837689 Phases=2

New Load.load_p1ulv46587 conn=wye bus1=p1ulv46587.1.2 kV=0.2080002494301389 Vminpu=0.8 Vmaxpu=1.2 model=1 kW=6.07006 kvar=1.990820963556946 Phases=2

New Load.load_p1ulv46717 conn=wye bus1=p1ulv46717.1.2 kV=0.2080002494301389 Vminpu=0.8 Vmaxpu=1.2 model=1 kW=4.14004 kvar=1.3592956687066866 Phases=2

New Load.load_p1ulv46801 conn=wye bus1=p1ulv46801.1.2 kV=0.2080002494301389 Vminpu=0.8 Vmaxpu=1.2 model=1 kW=4.97005 kvar=1.009211696284033 Phases=2

New Load.load_p1ulv46823 conn=wye bus1=p1ulv46823.1.2 kV=0.2080002494301389 Vminpu=0.8 Vmaxpu=1.2 model=1 kW=3.64004 kvar=0.739141647054201 Phases=2

New Load.load_p1ulv46836 conn=wye bus1=p1ulv46836.1.2.3 kV=0.48 Vminpu=0.8 Vmaxpu=1.2 model=1 kW=28.0703 kvar=5.699917521594691 Phases=3

New Load.load_p1ulv46862 conn=wye bus1=p1ulv46862.1.2 kV=0.2080002494301389 Vminpu=0.8 Vmaxpu=1.2 model=1 kW=4.14004 kvar=0.8406709773712032 Phases=2

New Load.load_p1ulv46866 conn=wye bus1=p1ulv46866.1.2.3 kV=0.48 Vminpu=0.8 Vmaxpu=1.2 model=1 kW=29.710300000000004 kvar=6.032933725034458 Phases=3

New Load.load_p1ulv46903 conn=wye bus1=p1ulv46903.1.2.3 kV=0.48 Vminpu=0.8 Vmaxpu=1.2 model=1 kW=20.630200000000002 kvar=4.189140780611635 Phases=3

New Load.load_p1ulv46923 conn=wye bus1=p1ulv46923.1.2 kV=0.2080002494301389 Vminpu=0.8 Vmaxpu=1.2 model=1 kW=3.7500400000000003 kvar=0.7595136983594827 Phases=2

New Load.load_p1ulv46927 conn=wye bus1=p1ulv46927.1.2 kV=0.2080002494301389 Vminpu=0.8 Vmaxpu=1.2 model=1 kW=3.50004 kvar=0.7107134345654403 Phases=2

New Load.load_p1ulv46957 conn=wye bus1=p1ulv46957.1.2 kV=0.2080002494301389 Vminpu=0.8 Vmaxpu=1.2 model=1 kW=3.91004 kvar=0.7898663736101474 Phases=2

New Load.load_p1ulv46984 conn=wye bus1=p1ulv46984.1.2.3 kV=0.48 Vminpu=0.8 Vmaxpu=1.2 model=1 kW=83.07080000000002 kvar=16.868245385795245 Phases=3

New Load.load_p1ulv47030 conn=wye bus1=p1ulv47030.1.2 kV=0.2080002494301389 Vminpu=0.8 Vmaxpu=1.2 model=1 kW=4.48004 kvar=0.9097109219867646 Phases=2

New Load.load_p1ulv47048 conn=wye bus1=p1ulv47048.1.2 kV=0.2080002494301389 Vminpu=0.8 Vmaxpu=1.2 model=1 kW=3.36003 kvar=0.6805230909267135 Phases=2

New Load.load_p1ulv47915 conn=wye bus1=p1ulv47915.1.2 kV=0.2080002494301389 Vminpu=0.8 Vmaxpu=1.2 model=1 kW=2.31002 kvar=0.4702768914874764 Phases=2

New Load.load_p1ulv47916 conn=wye bus1=p1ulv47916.1.2.3 kV=0.48 Vminpu=0.8 Vmaxpu=1.2 model=1 kW=39.360400000000006 kvar=7.992470106018662 Phases=3

New Load.load_p1ulv47950 conn=wye bus1=p1ulv47950.1.2 kV=0.2080002494301389 Vminpu=0.8 Vmaxpu=1.2 model=1 kW=3.88004 kvar=0.7899036155734878 Phases=2

New Load.load_p1ulv47957 conn=wye bus1=p1ulv47957.1.2.3 kV=0.48 Vminpu=0.8 Vmaxpu=1.2 model=1 kW=123.471 kvar=40.58295515053941 Phases=3

New Load.load_p1ulv47959 conn=wye bus1=p1ulv47959.1.2 kV=0.2080002494301389 Vminpu=0.8 Vmaxpu=1.2 model=1 kW=1.40001 kvar=0.2798584994418662 Phases=2

New Load.load_p1ulv48013 conn=wye bus1=p1ulv48013.1.2 kV=0.2080002494301389 Vminpu=0.8 Vmaxpu=1.2 model=1 kW=4.01004 kvar=0.810067352976347 Phases=2

New Load.load_p1ulv48021 conn=wye bus1=p1ulv48021.1.2 kV=0.2080002494301389 Vminpu=0.8 Vmaxpu=1.2 model=1 kW=3.02003 kvar=0.6100756371530351 Phases=2

New Load.load_p1ulv48043 conn=wye bus1=p1ulv48043.1.2 kV=0.2080002494301389 Vminpu=0.8 Vmaxpu=1.2 model=1 kW=4.25004 kvar=0.8607811112883423 Phases=2

New Load.load_p1ulv48051 conn=wye bus1=p1ulv48051.1.2.3 kV=0.48 Vminpu=0.8 Vmaxpu=1.2 model=1 kW=66.16070000000002 kvar=13.434503128608169 Phases=3

New Load.load_p1ulv48134 conn=wye bus1=p1ulv48134.1.2 kV=0.2080002494301389 Vminpu=0.8 Vmaxpu=1.2 model=1 kW=15.5102 kvar=5.097956208145202 Phases=2

New Load.load_p1ulv48153 conn=wye bus1=p1ulv48153.1.2 kV=0.2080002494301389 Vminpu=0.8 Vmaxpu=1.2 model=1 kW=3.87004 kvar=0.7898859035382418 Phases=2

New Load.load_p1ulv48196 conn=wye bus1=p1ulv48196.1.2 kV=0.2080002494301389 Vminpu=0.8 Vmaxpu=1.2 model=1 kW=4.47004 kvar=0.9100165868800613 Phases=2

New Load.load_p1ulv48215 conn=wye bus1=p1ulv48215.1.2.3 kV=0.48 Vminpu=0.8 Vmaxpu=1.2 model=1 kW=52.3005 kvar=10.620069480488743 Phases=3

New Load.load_p1ulv48264 conn=wye bus1=p1ulv48264.1.2 kV=0.2080002494301389 Vminpu=0.8 Vmaxpu=1.2 model=1 kW=4.14004 kvar=1.3592956687066866 Phases=2

New Load.load_p1ulv48265 conn=wye bus1=p1ulv48265.1.2 kV=0.2080002494301389 Vminpu=0.8 Vmaxpu=1.2 model=1 kW=3.78004 kvar=0.7695454848435601 Phases=2

New Load.load_p1ulv48304 conn=wye bus1=p1ulv48304.1.2 kV=0.2080002494301389 Vminpu=0.8 Vmaxpu=1.2 model=1 kW=3.64004 kvar=0.739141647054201 Phases=2

New Load.load_p1ulv48331 conn=wye bus1=p1ulv48331.1.2.3 kV=0.48 Vminpu=0.8 Vmaxpu=1.2 model=1 kW=30.2303 kvar=9.925487641110655 Phases=3

New Load.load_p1ulv48395 conn=wye bus1=p1ulv48395.1.2.3 kV=0.48 Vminpu=0.8 Vmaxpu=1.2 model=1 kW=106.201 kvar=34.906580654100445 Phases=3

New Load.load_p1ulv48418 conn=wye bus1=p1ulv48418.1.2 kV=0.2080002494301389 Vminpu=0.8 Vmaxpu=1.2 model=1 kW=3.89004 kvar=0.789906312212702 Phases=2

New Load.load_p1ulv48426 conn=wye bus1=p1ulv48426.1.2 kV=0.2080002494301389 Vminpu=0.8 Vmaxpu=1.2 model=1 kW=18.2802 kvar=3.7119529281217254 Phases=2

New Load.load_p1ulv48479 conn=wye bus1=p1ulv48479.1.2 kV=0.2080002494301389 Vminpu=0.8 Vmaxpu=1.2 model=1 kW=3.3000300000000005 kvar=0.6700996718520332 Phases=2

New Load.load_p1ulv48523 conn=wye bus1=p1ulv48523.1.2.3 kV=0.48 Vminpu=0.8 Vmaxpu=1.2 model=1 kW=78.5008 kvar=15.940267306697844 Phases=3

New Load.load_p1ulv48543 conn=wye bus1=p1ulv48543.1.2 kV=0.2080002494301389 Vminpu=0.8 Vmaxpu=1.2 model=1 kW=3.93004 kvar=0.8000826809384517 Phases=2

New Load.load_p1ulv48566 conn=wye bus1=p1ulv48566.1.2 kV=0.2080002494301389 Vminpu=0.8 Vmaxpu=1.2 model=1 kW=3.9800400000000002 kvar=0.8102617463034154 Phases=2

New Load.load_p1ulv48589 conn=wye bus1=p1ulv48589.1.2.3 kV=0.48 Vminpu=0.8 Vmaxpu=1.2 model=1 kW=21.8302 kvar=4.432811173372441 Phases=3

New Load.load_p1ulv48607 conn=wye bus1=p1ulv48607.1.2 kV=0.2080002494301389 Vminpu=0.8 Vmaxpu=1.2 model=1 kW=3.37003 kvar=0.6895858945393315 Phases=2

New Load.load_p1ulv48654 conn=wye bus1=p1ulv48654.1.2 kV=0.2080002494301389 Vminpu=0.8 Vmaxpu=1.2 model=1 kW=3.0100300000000004 kvar=0.6096359018765115 Phases=2

New Load.load_p1ulv48675 conn=wye bus1=p1ulv48675.1.2 kV=0.2080002494301389 Vminpu=0.8 Vmaxpu=1.2 model=1 kW=6.12006 kvar=2.0093938827221587 Phases=2

New Load.load_p1ulv48716 conn=wye bus1=p1ulv48716.1.2.3 kV=0.48 Vminpu=0.8 Vmaxpu=1.2 model=1 kW=27.100299999999997 kvar=8.907437855578744 Phases=3

New Load.load_p1ulv48718 conn=wye bus1=p1ulv48718.1.2.3 kV=0.48 Vminpu=0.8 Vmaxpu=1.2 model=1 kW=100.921 kvar=33.17112857875605 Phases=3

New Load.load_p1ulv49567 conn=wye bus1=p1ulv49567.1.2 kV=0.2080002494301389 Vminpu=0.8 Vmaxpu=1.2 model=1 kW=1.65002 kvar=0.3401962341539353 Phases=2

New Load.load_p1ulv49630 conn=wye bus1=p1ulv49630.1.2.3 kV=0.48 Vminpu=0.8 Vmaxpu=1.2 model=1 kW=19.380200000000002 kvar=6.369963695187404 Phases=3

New Load.load_p1ulv49631 conn=wye bus1=p1ulv49631.1.2.3 kV=0.48 Vminpu=0.8 Vmaxpu=1.2 model=1 kW=72.76070000000001 kvar=23.91528557168771 Phases=3

New Load.load_p1ulv49700 conn=wye bus1=p1ulv49700.1.2.3 kV=0.48 Vminpu=0.8 Vmaxpu=1.2 model=1 kW=25.750300000000003 kvar=8.463714313587282 Phases=3

New Load.load_p1ulv49717 conn=wye bus1=p1ulv49717.1.2 kV=0.2080002494301389 Vminpu=0.8 Vmaxpu=1.2 model=1 kW=3.13003 kvar=0.6404763570309296 Phases=2

New Load.load_p1ulv49722 conn=wye bus1=p1ulv49722.1.2 kV=0.2080002494301389 Vminpu=0.8 Vmaxpu=1.2 model=1 kW=5.40005 kvar=1.76915529473473 Phases=2

New Load.load_p1ulv49752 conn=wye bus1=p1ulv49752.1.2 kV=0.2080002494301389 Vminpu=0.8 Vmaxpu=1.2 model=1 kW=3.63004 kvar=0.7409012375272501 Phases=2

New Load.load_p1ulv49767 conn=wye bus1=p1ulv49767.1.2 kV=0.2080002494301389 Vminpu=0.8 Vmaxpu=1.2 model=1 kW=1.44001 kvar=0.2901383334885957 Phases=2

New Load.load_p1ulv49787 conn=wye bus1=p1ulv49787.1.2 kV=0.2080002494301389 Vminpu=0.8 Vmaxpu=1.2 model=1 kW=3.56004 kvar=0.7191629458284491 Phases=2

New Load.load_p1ulv49808 conn=wye bus1=p1ulv49808.1.2 kV=0.2080002494301389 Vminpu=0.8 Vmaxpu=1.2 model=1 kW=3.41003 kvar=0.6906498322195993 Phases=2

New Load.load_p1ulv49863 conn=wye bus1=p1ulv49863.1.2 kV=0.2080002494301389 Vminpu=0.8 Vmaxpu=1.2 model=1 kW=3.77004 kvar=0.7694756260336619 Phases=2

New Load.load_p1ulv49871 conn=wye bus1=p1ulv49871.1.2.3 kV=0.48 Vminpu=0.8 Vmaxpu=1.2 model=1 kW=42.6204 kvar=14.008648036365217 Phases=3

New Load.load_p1ulv49932 conn=wye bus1=p1ulv49932.1.2.3 kV=0.48 Vminpu=0.8 Vmaxpu=1.2 model=1 kW=44.3104 kvar=14.564124174117497 Phases=3

New Load.load_p1ulv49934 conn=wye bus1=p1ulv49934.1.2 kV=0.2080002494301389 Vminpu=0.8 Vmaxpu=1.2 model=1 kW=4.14004 kvar=1.3592956687066866 Phases=2

New Load.load_p1ulv49955 conn=wye bus1=p1ulv49955.1.2 kV=0.2080002494301389 Vminpu=0.8 Vmaxpu=1.2 model=1 kW=3.6900400000000007 kvar=0.7492945800859013 Phases=2

New Load.load_p1ulv49962 conn=wye bus1=p1ulv49962.1.2 kV=0.2080002494301389 Vminpu=0.8 Vmaxpu=1.2 model=1 kW=7.13007 kvar=2.3410095720271995 Phases=2

New Load.load_p1ulv50003 conn=wye bus1=p1ulv50003.1.2.3 kV=0.48 Vminpu=0.8 Vmaxpu=1.2 model=1 kW=93.0309 kvar=30.577778120484297 Phases=3

New Load.load_p1ulv50005 conn=wye bus1=p1ulv50005.1.2 kV=0.2080002494301389 Vminpu=0.8 Vmaxpu=1.2 model=1 kW=5.58006 kvar=1.1301564803756265 Phases=2

New Load.load_p1ulv50024 conn=wye bus1=p1ulv50024.1.2 kV=0.2080002494301389 Vminpu=0.8 Vmaxpu=1.2 model=1 kW=3.67004 kvar=0.749065348529082 Phases=2

New Load.load_p1ulv50046 conn=wye bus1=p1ulv50046.1.2 kV=0.2080002494301389 Vminpu=0.8 Vmaxpu=1.2 model=1 kW=4.15004 kvar=0.8405276287025704 Phases=2

New Load.load_p1ulv50067 conn=wye bus1=p1ulv50067.1.2 kV=0.2080002494301389 Vminpu=0.8 Vmaxpu=1.2 model=1 kW=9.760100000000001 kvar=3.211451830441647 Phases=2

New Load.load_p1ulv50069 conn=wye bus1=p1ulv50069.1.2 kV=0.2080002494301389 Vminpu=0.8 Vmaxpu=1.2 model=1 kW=16.1402 kvar=5.299297579747941 Phases=2

New Load.load_p1ulv50083 conn=wye bus1=p1ulv50083.1.2 kV=0.2080002494301389 Vminpu=0.8 Vmaxpu=1.2 model=1 kW=4.13004 kvar=0.840798942398307 Phases=2

New Load.load_p1ulv50104 conn=wye bus1=p1ulv50104.1.2 kV=0.2080002494301389 Vminpu=0.8 Vmaxpu=1.2 model=1 kW=3.25003 kvar=0.659946738820333 Phases=2

New Load.load_p1ulv50126 conn=wye bus1=p1ulv50126.1.2 kV=0.2080002494301389 Vminpu=0.8 Vmaxpu=1.2 model=1 kW=3.62004 kvar=0.7293785270672118 Phases=2

New Load.load_p1ulv50143 conn=wye bus1=p1ulv50143.1.2 kV=0.2080002494301389 Vminpu=0.8 Vmaxpu=1.2 model=1 kW=4.32004 kvar=0.8794793907851697 Phases=2

New Load.load_p1ulv50201 conn=wye bus1=p1ulv50201.1.2 kV=0.2080002494301389 Vminpu=0.8 Vmaxpu=1.2 model=1 kW=4.14004 kvar=1.3592956687066866 Phases=2

New Load.load_p1ulv50221 conn=wye bus1=p1ulv50221.1.2 kV=0.2080002494301389 Vminpu=0.8 Vmaxpu=1.2 model=1 kW=2.15002 kvar=0.43994369930755917 Phases=2

New Load.load_p1ulv50227 conn=wye bus1=p1ulv50227.1.2 kV=0.2080002494301389 Vminpu=0.8 Vmaxpu=1.2 model=1 kW=3.31003 kvar=0.6703963496338274 Phases=2

New Load.load_p1ulv50329 conn=wye bus1=p1ulv50329.1.2 kV=0.2080002494301389 Vminpu=0.8 Vmaxpu=1.2 model=1 kW=3.47003 kvar=0.6991539790386396 Phases=2

New Load.load_p1ulv50345 conn=wye bus1=p1ulv50345.1.2 kV=0.2080002494301389 Vminpu=0.8 Vmaxpu=1.2 model=1 kW=3.74004 kvar=0.7594475131176014 Phases=2

New Load.load_p1ulv50984 conn=wye bus1=p1ulv50984.1.2.3 kV=0.48 Vminpu=0.8 Vmaxpu=1.2 model=1 kW=49.57050000000002 kvar=10.065719336957912 Phases=3

New Load.load_p1ulv51026 conn=wye bus1=p1ulv51026.1.2.3 kV=0.48 Vminpu=0.8 Vmaxpu=1.2 model=1 kW=19.860200000000003 kvar=6.527732065673257 Phases=3

New Load.load_p1ulv51028 conn=wye bus1=p1ulv51028.1.2 kV=0.2080002494301389 Vminpu=0.8 Vmaxpu=1.2 model=1 kW=2.87003 kvar=0.5797741681037358 Phases=2

New Load.load_p1ulv51045 conn=wye bus1=p1ulv51045.1.2 kV=0.2080002494301389 Vminpu=0.8 Vmaxpu=1.2 model=1 kW=1.61002 kvar=0.3302830609165535 Phases=2

New Load.load_p1ulv51079 conn=wye bus1=p1ulv51079.1.2 kV=0.2080002494301389 Vminpu=0.8 Vmaxpu=1.2 model=1 kW=4.42004 kvar=0.8998375215150975 Phases=2

New Load.load_p1ulv51085 conn=wye bus1=p1ulv51085.1.2 kV=0.2080002494301389 Vminpu=0.8 Vmaxpu=1.2 model=1 kW=3.20003 kvar=0.6497938057886328 Phases=2

New Load.load_p1ulv51105 conn=wye bus1=p1ulv51105.1.2 kV=0.2080002494301389 Vminpu=0.8 Vmaxpu=1.2 model=1 kW=3.43003 kvar=0.70007864149034 Phases=2

New Load.load_p1ulv51129 conn=wye bus1=p1ulv51129.1.2 kV=0.2080002494301389 Vminpu=0.8 Vmaxpu=1.2 model=1 kW=3.80004 kvar=0.7696404396523686 Phases=2

New Load.load_p1ulv51170 conn=wye bus1=p1ulv51170.1.2.3 kV=0.48 Vminpu=0.8 Vmaxpu=1.2 model=1 kW=147.801 kvar=48.579839429541146 Phases=3

New Load.load_p1ulv51197 conn=wye bus1=p1ulv51197.1.2 kV=0.2080002494301389 Vminpu=0.8 Vmaxpu=1.2 model=1 kW=3.2800300000000004 kvar=0.6694632252334703 Phases=2

New Load.load_p1ulv51204 conn=wye bus1=p1ulv51204.1.2.3 kV=0.48 Vminpu=0.8 Vmaxpu=1.2 model=1 kW=22.0502 kvar=4.477484078711921 Phases=3

New Load.load_p1ulv51221 conn=wye bus1=p1ulv51221.1.2 kV=0.2080002494301389 Vminpu=0.8 Vmaxpu=1.2 model=1 kW=4.26004 kvar=0.8694859858061031 Phases=2

New Load.load_p1ulv51244 conn=wye bus1=p1ulv51244.1.2.3 kV=0.48 Vminpu=0.8 Vmaxpu=1.2 model=1 kW=24.8602 kvar=8.171152591567573 Phases=3

New Load.load_p1ulv51265 conn=wye bus1=p1ulv51265.1.2 kV=0.2080002494301389 Vminpu=0.8 Vmaxpu=1.2 model=1 kW=4.38004 kvar=0.8894050559233643 Phases=2

New Load.load_p1ulv51283 conn=wye bus1=p1ulv51283.1.2.3 kV=0.48 Vminpu=0.8 Vmaxpu=1.2 model=1 kW=59.820600000000006 kvar=12.147090914322517 Phases=3

New Load.load_p1ulv51326 conn=wye bus1=p1ulv51326.1.2 kV=0.2080002494301389 Vminpu=0.8 Vmaxpu=1.2 model=1 kW=11.4001 kvar=3.751075502527415 Phases=2

New Load.load_p1ulv51327 conn=wye bus1=p1ulv51327.1.2 kV=0.2080002494301389 Vminpu=0.8 Vmaxpu=1.2 model=1 kW=3.72004 kvar=0.7592704872813721 Phases=2

New Load.load_p1ulv51345 conn=wye bus1=p1ulv51345.1.2 kV=0.2080002494301389 Vminpu=0.8 Vmaxpu=1.2 model=1 kW=4.62005 kvar=0.940555818788026 Phases=2

New Load.load_p1ulv51365 conn=wye bus1=p1ulv51365.1.2 kV=0.2080002494301389 Vminpu=0.8 Vmaxpu=1.2 model=1 kW=3.36003 kvar=0.6805230909267135 Phases=2

New Load.load_p1ulv51389 conn=wye bus1=p1ulv51389.1.2.3 kV=0.48 Vminpu=0.8 Vmaxpu=1.2 model=1 kW=321.113 kvar=65.20477569216702 Phases=3

New Load.load_p1ulv51407 conn=wye bus1=p1ulv51407.1.2 kV=0.2080002494301389 Vminpu=0.8 Vmaxpu=1.2 model=1 kW=3.6900400000000007 kvar=0.7492945800859013 Phases=2

New Load.load_p1ulv51449 conn=wye bus1=p1ulv51449.1.2 kV=0.2080002494301389 Vminpu=0.8 Vmaxpu=1.2 model=1 kW=17.7202 kvar=5.818057581235018 Phases=2

New Load.load_p1ulv51474 conn=wye bus1=p1ulv51474.1.2 kV=0.2080002494301389 Vminpu=0.8 Vmaxpu=1.2 model=1 kW=3.74004 kvar=0.7594475131176014 Phases=2

New Load.load_p1ulv51480 conn=wye bus1=p1ulv51480.1.2 kV=0.2080002494301389 Vminpu=0.8 Vmaxpu=1.2 model=1 kW=7.10007 kvar=2.331159698581242 Phases=2

New Load.load_p1ulv51516 conn=wye bus1=p1ulv51516.1.2.3 kV=0.48 Vminpu=0.8 Vmaxpu=1.2 model=1 kW=47.6505 kvar=9.675846708540623 Phases=3

New Load.load_p1ulv51537 conn=wye bus1=p1ulv51537.1.2 kV=0.2080002494301389 Vminpu=0.8 Vmaxpu=1.2 model=1 kW=3.61004 kvar=0.7292634355115489 Phases=2

New Load.load_p1ulv51582 conn=wye bus1=p1ulv51582.1.2 kV=0.2080002494301389 Vminpu=0.8 Vmaxpu=1.2 model=1 kW=3.2800300000000004 kvar=0.6694632252334703 Phases=2

New Load.load_p1ulv51605 conn=wye bus1=p1ulv51605.1.2.3 kV=0.48 Vminpu=0.8 Vmaxpu=1.2 model=1 kW=190.112 kvar=38.603888090451825 Phases=3

New Load.load_p1ulv51615 conn=wye bus1=p1ulv51615.1.2 kV=0.2080002494301389 Vminpu=0.8 Vmaxpu=1.2 model=1 kW=3.44003 kvar=0.7003258045487328 Phases=2

New Load.load_p1ulv51646 conn=wye bus1=p1ulv51646.1.2 kV=0.2080002494301389 Vminpu=0.8 Vmaxpu=1.2 model=1 kW=3.18003 kvar=0.6507075106785133 Phases=2

New Load.load_p1ulv51657 conn=wye bus1=p1ulv51657.1.2 kV=0.2080002494301389 Vminpu=0.8 Vmaxpu=1.2 model=1 kW=3.21003 kvar=0.6501428670480555 Phases=2

New Load.load_p1ulv51672 conn=wye bus1=p1ulv51672.1.2 kV=0.2080002494301389 Vminpu=0.8 Vmaxpu=1.2 model=1 kW=4.02004 kvar=0.8205013197951115 Phases=2

New Load.load_p1ulv51710 conn=wye bus1=p1ulv51710.1.2 kV=0.2080002494301389 Vminpu=0.8 Vmaxpu=1.2 model=1 kW=3.70004 kvar=0.7493869570665965 Phases=2

New Load.load_p1ulv51736 conn=wye bus1=p1ulv51736.1.2 kV=0.2080002494301389 Vminpu=0.8 Vmaxpu=1.2 model=1 kW=3.77004 kvar=0.7694756260336619 Phases=2

New Load.load_p1ulv51780 conn=wye bus1=p1ulv51780.1.2 kV=0.2080002494301389 Vminpu=0.8 Vmaxpu=1.2 model=1 kW=11.7101 kvar=3.8489237400550054 Phases=2

New Load.load_p1ulv51782 conn=wye bus1=p1ulv51782.1.2 kV=0.2080002494301389 Vminpu=0.8 Vmaxpu=1.2 model=1 kW=4.01004 kvar=0.8205467074591327 Phases=2

New Load.load_p1ulv51805 conn=wye bus1=p1ulv51805.1.2 kV=0.2080002494301389 Vminpu=0.8 Vmaxpu=1.2 model=1 kW=2.97003 kvar=0.5999751474699353 Phases=2

New Load.load_p1ulv51811 conn=wye bus1=p1ulv51811.1.2 kV=0.2080002494301389 Vminpu=0.8 Vmaxpu=1.2 model=1 kW=4.14004 kvar=1.3592956687066866 Phases=2

New Load.load_p1ulv51833 conn=wye bus1=p1ulv51833.1.2 kV=0.2080002494301389 Vminpu=0.8 Vmaxpu=1.2 model=1 kW=2.85003 kvar=0.5802128332421591 Phases=2

New Load.load_p1ulv51852 conn=wye bus1=p1ulv51852.1.2 kV=0.2080002494301389 Vminpu=0.8 Vmaxpu=1.2 model=1 kW=3.35003 kvar=0.6802526048837334 Phases=2

New Load.load_p1ulv51853 conn=wye bus1=p1ulv51853.1.2 kV=0.2080002494301389 Vminpu=0.8 Vmaxpu=1.2 model=1 kW=3.58004 kvar=0.7306960987749602 Phases=2

New Load.load_p1ulv51895 conn=wye bus1=p1ulv51895.1.2.3 kV=0.48 Vminpu=0.8 Vmaxpu=1.2 model=1 kW=44.760400000000004 kvar=9.088986873442286 Phases=3

New Load.load_p1ulv51897 conn=wye bus1=p1ulv51897.1.2 kV=0.2080002494301389 Vminpu=0.8 Vmaxpu=1.2 model=1 kW=15.320200000000002 kvar=5.040940598224621 Phases=2

New Load.load_p1ulv51915 conn=wye bus1=p1ulv51915.1.2 kV=0.2080002494301389 Vminpu=0.8 Vmaxpu=1.2 model=1 kW=4.00004 kvar=0.8101474048239126 Phases=2

New Load.load_p1ulv51923 conn=wye bus1=p1ulv51923.1.2.3 kV=0.48 Vminpu=0.8 Vmaxpu=1.2 model=1 kW=44.970400000000005 kvar=9.131629192175428 Phases=3

New Load.load_p1ulv51938 conn=wye bus1=p1ulv51938.1.2 kV=0.2080002494301389 Vminpu=0.8 Vmaxpu=1.2 model=1 kW=3.45003 kvar=0.7005584709471337 Phases=2

New Load.load_p1ulv51959 conn=wye bus1=p1ulv51959.1.2.3 kV=0.48 Vminpu=0.8 Vmaxpu=1.2 model=1 kW=21.140199999999997 kvar=4.292700697534977 Phases=3

New Load.load_p1ulv51976 conn=wye bus1=p1ulv51976.1.2 kV=0.2080002494301389 Vminpu=0.8 Vmaxpu=1.2 model=1 kW=4.43004 kvar=0.8995579889550643 Phases=2

New Load.load_p1ulv52003 conn=wye bus1=p1ulv52003.1.2.3 kV=0.48 Vminpu=0.8 Vmaxpu=1.2 model=1 kW=108.041 kvar=35.511359407629556 Phases=3

New Load.load_p1ulv52015 conn=wye bus1=p1ulv52015.1.2 kV=0.2080002494301389 Vminpu=0.8 Vmaxpu=1.2 model=1 kW=3.9800400000000002 kvar=0.8102617463034154 Phases=2

New Load.load_p1ulv52044 conn=wye bus1=p1ulv52044.1.2 kV=0.2080002494301389 Vminpu=0.8 Vmaxpu=1.2 model=1 kW=3.18003 kvar=0.6507075106785133 Phases=2

New Load.load_p1ulv52071 conn=wye bus1=p1ulv52071.1.2.3 kV=0.48 Vminpu=0.8 Vmaxpu=1.2 model=1 kW=26.160300000000003 kvar=8.598474796710617 Phases=3

New Load.load_p1ulv52111 conn=wye bus1=p1ulv52111.1.2.3 kV=0.48 Vminpu=0.8 Vmaxpu=1.2 model=1 kW=144.981 kvar=47.65295025293676 Phases=3

New Load.load_p1ulv52150 conn=wye bus1=p1ulv52150.1.2 kV=0.2080002494301389 Vminpu=0.8 Vmaxpu=1.2 model=1 kW=4.14004 kvar=1.3592956687066866 Phases=2

New Load.load_p1ulv52152 conn=wye bus1=p1ulv52152.1.2 kV=0.2080002494301389 Vminpu=0.8 Vmaxpu=1.2 model=1 kW=4.14004 kvar=1.3592956687066866 Phases=2

New Load.load_p1ulv52176 conn=wye bus1=p1ulv52176.1.2 kV=0.2080002494301389 Vminpu=0.8 Vmaxpu=1.2 model=1 kW=3.0300300000000004 kvar=0.6105012150057635 Phases=2

New Load.load_p1ulv52222 conn=wye bus1=p1ulv52222.1.2.3 kV=0.48 Vminpu=0.8 Vmaxpu=1.2 model=1 kW=80.0508 kvar=26.31142556685214 Phases=3

New Load.load_p1ulv52240 conn=wye bus1=p1ulv52240.1.2 kV=0.2080002494301389 Vminpu=0.8 Vmaxpu=1.2 model=1 kW=3.77004 kvar=0.7596010602602379 Phases=2

New Load.load_p1ulv52276 conn=wye bus1=p1ulv52276.1.2.3 kV=0.48 Vminpu=0.8 Vmaxpu=1.2 model=1 kW=22.3202 kvar=7.336294964413261 Phases=3

New Load.load_p1ulv52295 conn=wye bus1=p1ulv52295.1.2 kV=0.2080002494301389 Vminpu=0.8 Vmaxpu=1.2 model=1 kW=4.36004 kvar=0.8807707807580453 Phases=2

New Load.load_p1ulv52301 conn=wye bus1=p1ulv52301.1.2 kV=0.2080002494301389 Vminpu=0.8 Vmaxpu=1.2 model=1 kW=16.7602 kvar=3.403303763958039 Phases=2

New Load.load_p1ulv52337 conn=wye bus1=p1ulv52337.1.2.3 kV=0.48 Vminpu=0.8 Vmaxpu=1.2 model=1 kW=333.2130000000001 kvar=109.52181673896453 Phases=3

New Load.load_p1ulv52354 conn=wye bus1=p1ulv52354.1.2 kV=0.2080002494301389 Vminpu=0.8 Vmaxpu=1.2 model=1 kW=3.3200300000000005 kvar=0.6706785752516337 Phases=2

New Load.load_p1ulv52380 conn=wye bus1=p1ulv52380.1.2.3 kV=0.48 Vminpu=0.8 Vmaxpu=1.2 model=1 kW=30.670300000000005 kvar=10.080840111067287 Phases=3

New Load.load_p1ulv52460 conn=wye bus1=p1ulv52460.1.2.3 kV=0.48 Vminpu=0.8 Vmaxpu=1.2 model=1 kW=34.5803 kvar=11.365994962316641 Phases=3

New Load.load_p1ulv52519 conn=wye bus1=p1ulv52519.1.2 kV=0.2080002494301389 Vminpu=0.8 Vmaxpu=1.2 model=1 kW=3.59004 kvar=0.7308650364566972 Phases=2

New Load.load_p1ulv52520 conn=wye bus1=p1ulv52520.1.2.3 kV=0.48 Vminpu=0.8 Vmaxpu=1.2 model=1 kW=36.86039999999999 kvar=12.115427590534965 Phases=3

New Load.load_p1ulv52560 conn=wye bus1=p1ulv52560.1.2 kV=0.2080002494301389 Vminpu=0.8 Vmaxpu=1.2 model=1 kW=16.7802 kvar=5.509428213261694 Phases=2

New Load.load_p1ulv52584 conn=wye bus1=p1ulv52584.1.2 kV=0.2080002494301389 Vminpu=0.8 Vmaxpu=1.2 model=1 kW=2.7600300000000004 kvar=0.5604479951096709 Phases=2

New Load.load_p1ulv52592 conn=wye bus1=p1ulv52592.1.2 kV=0.2080002494301389 Vminpu=0.8 Vmaxpu=1.2 model=1 kW=12.0401 kvar=3.961660350170641 Phases=2

New Load.load_p1ulv52618 conn=wye bus1=p1ulv52618.1.2.3 kV=0.48 Vminpu=0.8 Vmaxpu=1.2 model=1 kW=27.810300000000005 kvar=5.6471222698298496 Phases=3

New Load.load_p1ulv52627 conn=wye bus1=p1ulv52627.1.2.3 kV=0.48 Vminpu=0.8 Vmaxpu=1.2 model=1 kW=44.5904 kvar=14.65615572356758 Phases=3

New Load.load_p1ulv52648 conn=wye bus1=p1ulv52648.1.2 kV=0.2080002494301389 Vminpu=0.8 Vmaxpu=1.2 model=1 kW=3.17003 kvar=0.6403771062023346 Phases=2

New Load.load_p1ulv52690 conn=wye bus1=p1ulv52690.1.2 kV=0.2080002494301389 Vminpu=0.8 Vmaxpu=1.2 model=1 kW=4.96005 kvar=1.0097734632697801 Phases=2

New Load.load_p1ulv52751 conn=wye bus1=p1ulv52751.1.2 kV=0.2080002494301389 Vminpu=0.8 Vmaxpu=1.2 model=1 kW=3.76004 kvar=0.7595649045608481 Phases=2

New Load.load_p1ulv52755 conn=wye bus1=p1ulv52755.1.2 kV=0.2080002494301389 Vminpu=0.8 Vmaxpu=1.2 model=1 kW=2.22002 kvar=0.4496313641006546 Phases=2

New Load.load_p1ulv52792 conn=wye bus1=p1ulv52792.1.2 kV=0.2080002494301389 Vminpu=0.8 Vmaxpu=1.2 model=1 kW=1.38001 kvar=0.28022298226153225 Phases=2

New Load.load_p1ulv52811 conn=wye bus1=p1ulv52811.1.2 kV=0.2080002494301389 Vminpu=0.8 Vmaxpu=1.2 model=1 kW=3.65004 kvar=0.7392602157737106 Phases=2

New Load.load_p1ulv52855 conn=wye bus1=p1ulv52855.1.2 kV=0.2080002494301389 Vminpu=0.8 Vmaxpu=1.2 model=1 kW=5.97006 kvar=1.9601445154923727 Phases=2

New Load.load_p1ulv52870 conn=wye bus1=p1ulv52870.1.2.3 kV=0.48 Vminpu=0.8 Vmaxpu=1.2 model=1 kW=50.0005 kvar=10.15303456103053 Phases=3

New Load.load_p1ulv52913 conn=wye bus1=p1ulv52913.1.2 kV=0.2080002494301389 Vminpu=0.8 Vmaxpu=1.2 model=1 kW=13.1401 kvar=2.66821110659688 Phases=2

...